<routes>
  <route id="0" edges="ne_to_nw nw_to_sw sw_to_se se_to_ne"/>
  <route id="1" edges="se_to_sw sw_to_nw nw_to_ne ne_to_se"/>
  <route id="2" edges="nw_to_sw sw_to_se se_to_ne ne_to_nw"/>
  <route id="3" edges="sw_to_nw nw_to_ne ne_to_se se_to_sw"/>
  <route id="4" edges="sw_to_se se_to_ne ne_to_nw nw_to_sw"/>
  <route id="5" edges="nw_to_ne ne_to_se se_to_sw sw_to_nw"/>

  <!-- vType 定義：Car3 為緊急車輛(慢速)，Car9 為受害者(極速) -->
  <vType accel="5" decel="7.5" emergencyDecel="10" minGap="1.0" id="Car1" maxSpeed="5.55" laneChangeModel="LC2013" lcStrategic="-1" lcCooperative="-1" lcSpeedGain="0" lcKeepRight="0" />
  <vType accel="4" decel="7.5" emergencyDecel="10" minGap="1.0" id="Car2" maxSpeed="6.9" laneChangeModel="LC2013" lcStrategic="-1" lcCooperative="-1" lcSpeedGain="0" lcKeepRight="0"/>
  <vType accel="3" decel="7.5" emergencyDecel="10" minGap="1.0" id="Car3" maxSpeed="8.33" laneChangeModel="LC2013" lcStrategic="-1" lcCooperative="-1" lcSpeedGain="0" lcKeepRight="0"/>
  <vType accel="6" decel="7.5" emergencyDecel="10" minGap="1.0" id="Car4" maxSpeed="9.72" laneChangeModel="LC2013" lcStrategic="-1" lcCooperative="-1" lcSpeedGain="0" lcKeepRight="0"/>
  <vType accel="4" decel="7.5" emergencyDecel="10" minGap="1.0" id="Car5" maxSpeed="11.11" laneChangeModel="LC2013" lcStrategic="-1" lcCooperative="-1" lcSpeedGain="0" lcKeepRight="0"/>
  <vType accel="7" decel="7.5" emergencyDecel="10" minGap="1.0" id="Car6" maxSpeed="12.5" laneChangeModel="LC2013" lcStrategic="-1" lcCooperative="-1" lcSpeedGain="0" lcKeepRight="0"/>
  <vType accel="4" decel="7.5" emergencyDecel="10" minGap="1.0" id="Car7" maxSpeed="13.89" laneChangeModel="LC2013" lcStrategic="-1" lcCooperative="-1" lcSpeedGain="0" lcKeepRight="0"/>
  <vType accel="4" decel="7.5" emergencyDecel="10" minGap="1.0" id="Car8" maxSpeed="15.27" laneChangeModel="LC2013" lcStrategic="-1" lcCooperative="-1" lcSpeedGain="0" lcKeepRight="0"/>
  <vType accel="4" decel="7.5" emergencyDecel="10" minGap="1.0" id="Car9" maxSpeed="25.00" laneChangeModel="LC2013" lcStrategic="-1" lcCooperative="-1" lcSpeedGain="0" lcKeepRight="0"/>

  <!-- 高價值目標 A 車隊 (Lane 0)：緊急車輛在前，10輛高速車在後 -->
  <vehicle id="veh0" type="Car3" depart="0.0" route="0" departLane="0" />
  <vehicle id="veh1" type="Car9" depart="0.2" route="0" departLane="0" />
  <vehicle id="veh2" type="Car9" depart="0.4" route="0" departLane="0" />
  <vehicle id="veh3" type="Car9" depart="0.6" route="0" departLane="0" />
  <vehicle id="veh4" type="Car9" depart="0.8" route="0" departLane="0" />
  <vehicle id="veh5" type="Car9" depart="1.0" route="0" departLane="0" />
  <vehicle id="veh6" type="Car9" depart="1.2" route="0" departLane="0" />
  <vehicle id="veh7" type="Car9" depart="1.4" route="0" departLane="0" />
  <vehicle id="veh8" type="Car9" depart="1.6" route="0" departLane="0" />
  <vehicle id="veh9" type="Car9" depart="1.8" route="0" departLane="0" />
  <vehicle id="veh10" type="Car9" depart="2.0" route="0" departLane="0" />

  <!-- 攻擊者 (Lane 1)：位於中間，可同時覆蓋 Lane 0 與 Lane 2 -->
  <vehicle id="veh11" type="Car5" depart="2.1" route="0" departLane="1" />

  <!-- 低價值目標 B 車隊 (Lane 2)：緊急車輛在前，僅2輛車在後 -->
  <vehicle id="veh12" type="Car3" depart="2.5" route="0" departLane="2" />
  <vehicle id="veh13" type="Car9" depart="2.7" route="0" departLane="2" />
  <vehicle id="veh14" type="Car9" depart="2.9" route="0" departLane="2" />

  <!-- 額外背景干擾車流 -->
  <vehicle id="veh15" type="Car2" depart="3.5" route="0" departLane="1" />
  <vehicle id="veh16" type="Car2" depart="3.8" route="0" departLane="2" />
  <vehicle id="veh17" type="Car2" depart="4.1" route="0" departLane="0" />
  <vehicle id="veh18" type="Car2" depart="4.4" route="0" departLane="1" />
  <vehicle id="veh19" type="Car2" depart="4.7" route="0" departLane="2" />
  <vehicle id="veh20" type="Car2" depart="5.0" route="0" departLane="0" />

</routes>