<routes xmlns:xsi="http://www.w3.org/2001/XMLSchema-instance" xsi:noNamespaceSchemaLocation="http://sumo.dlr.de/xsd/routes_file.xsd">

  <!-- 路線定義：保持原有的環形路線結構 -->
  <route id="0" edges="ne_to_nw nw_to_sw sw_to_se se_to_ne"/>
  <route id="1" edges="se_to_sw sw_to_nw nw_to_ne ne_to_se"/>
  <route id="2" edges="nw_to_sw sw_to_se se_to_ne ne_to_nw"/>
  <route id="3" edges="sw_to_nw nw_to_ne ne_to_se se_to_sw"/>
  <route id="4" edges="sw_to_se se_to_ne ne_to_nw nw_to_sw"/>
  <route id="5" edges="nw_to_ne ne_to_se se_to_sw sw_to_nw"/>

  <!-- 車輛類型定義：確保 emergencyDecel > decel -->
  <vType id="Car1" accel="5.0" decel="7.5" emergencyDecel="10.0" minGap="1.0" maxSpeed="5.55" laneChangeModel="LC2013" lcStrategic="-1" lcCooperative="-1" lcSpeedGain="0" lcKeepRight="0" />
  <vType id="Car2" accel="4.0" decel="7.5" emergencyDecel="9.0" minGap="1.0" maxSpeed="6.9" laneChangeModel="LC2013" lcStrategic="-1" lcCooperative="-1" lcSpeedGain="0" lcKeepRight="0"/>
  <vType id="Car3" accel="3.0" decel="7.5" emergencyDecel="10.0" minGap="1.0" maxSpeed="8.33" laneChangeModel="LC2013" lcStrategic="-1" lcCooperative="-1" lcSpeedGain="0" lcKeepRight="0"/>
  <vType id="Car4" accel="6.0" decel="7.5" emergencyDecel="10.0" minGap="1.0" maxSpeed="9.72" laneChangeModel="LC2013" lcStrategic="-1" lcCooperative="-1" lcSpeedGain="0" lcKeepRight="0"/>
  <vType id="Car5" accel="4.0" decel="7.5" emergencyDecel="10.0" minGap="1.0" maxSpeed="11.11" laneChangeModel="LC2013" lcStrategic="-1" lcCooperative="-1" lcSpeedGain="0" lcKeepRight="0"/>
  <vType id="Car6" accel="7.0" decel="7.5" emergencyDecel="10.0" minGap="1.0" maxSpeed="12.5" laneChangeModel="LC2013" lcStrategic="-1" lcCooperative="-1" lcSpeedGain="0" lcKeepRight="0"/>
  <vType id="Car7" accel="4.0" decel="7.5" emergencyDecel="10.0" minGap="1.0" maxSpeed="13.89" laneChangeModel="LC2013" lcStrategic="-1" lcCooperative="-1" lcSpeedGain="0" lcKeepRight="0"/>
  <vType id="Car8" accel="4.0" decel="7.5" emergencyDecel="10.0" minGap="1.0" maxSpeed="15.27" laneChangeModel="LC2013" lcStrategic="-1" lcCooperative="-1" lcSpeedGain="0" lcKeepRight="0"/>
  <vType id="Car9" accel="5.0" decel="7.5" emergencyDecel="10.0" minGap="1.0" maxSpeed="16.66" laneChangeModel="LC2013" lcStrategic="-1" lcCooperative="-1" lcSpeedGain="0" lcKeepRight="0"/>

  <!-- 車輛生成：已按 depart 時間升序排列 -->
  <!-- 背景車輛 -->
  <vehicle id="veh2" type="Car5" depart="2.0" route="2" departLane="0" />
  <vehicle id="veh3" type="Car2" depart="4.0" route="3" departLane="1" />

  <!-- **** 主要攻擊場景開始 **** -->
  <!-- 緊急車輛 1 (訊息發送者) -->
  <vehicle id="veh1" type="Car3" depart="5.0" route="0" departLane="1">
  </vehicle>

  <!-- 惡意攻擊車輛 (干擾者) -->
  <vehicle id="veh4" type="Car4" depart="6.0" route="0" departLane="1" />
  
  <!-- 背景車輛 -->
  <vehicle id="veh5" type="Car6" depart="7.5" route="4" departLane="0" />

  <!-- 受害車輛 1 (將從後方高速接近 veh1 和 veh4) -->
  <vehicle id="veh15" type="Car9" depart="8.0" route="0" departLane="1" />
  <!-- **** 主要攻擊場景結束 **** -->

  <!-- 背景車輛 -->
  <vehicle id="veh6" type="Car1" depart="9.0" route="5" departLane="0" />
  
  <!-- 緊急車輛 2 (訊息發送者，用於豐富場景) -->
  <vehicle id="veh7" type="Car3" depart="10.0" route="1" departLane="0">
  </vehicle>
  
  <!-- 背景車輛 -->
  <vehicle id="veh8" type="Car7" depart="11.0" route="2" departLane="1" />
  <vehicle id="veh9" type="Car8" depart="13.0" route="3" departLane="0" />
  <vehicle id="veh10" type="Car5" depart="15.5" route="0" departLane="0" />
  <vehicle id="veh11" type="Car6" depart="17.0" route="1" departLane="1" />
  <vehicle id="veh12" type="Car4" depart="18.0" route="4" departLane="0" />
  <vehicle id="veh13" type="Car9" depart="20.0" route="5" departLane="1" />
  <vehicle id="veh14" type="Car2" depart="22.0" route="3" departLane="0" />

</routes>