<?xml version="1.0" encoding="UTF-8"?>

<!-- generated on 2026-01-21 13:35:07 by Eclipse SUMO netedit Version 1.24.0
<neteditConfiguration xmlns:xsi="http://www.w3.org/2001/XMLSchema-instance" xsi:noNamespaceSchemaLocation="http://sumo.dlr.de/xsd/neteditConfiguration.xsd">

    <input>
        <sumo-net-file value="map.net.xml"/>
    </input>

    <output>
        <output-file value="map.net.xml"/>
    </output>

    <processing>
        <geometry.min-radius.fix.railways value="false"/>
        <geometry.avoid-overlap value="false"/>
        <geometry.max-grade.fix value="false"/>
        <offset.disable-normalization value="true"/>
        <lefthand value="0"/>
    </processing>

    <junctions>
        <no-internal-links value="true"/>
        <no-turnarounds value="true"/>
        <junctions.corner-detail value="5"/>
        <junctions.limit-turn-speed value="5.50"/>
        <rectangular-lane-cut value="0"/>
    </junctions>

    <pedestrian>
        <walkingareas value="0"/>
    </pedestrian>

</neteditConfiguration>
-->

<net version="1.20" junctionCornerDetail="5" limitTurnSpeed="5.50" avoidOverlap="0" xmlns:xsi="http://www.w3.org/2001/XMLSchema-instance" xsi:noNamespaceSchemaLocation="http://sumo.dlr.de/xsd/net_file.xsd">

    <location netOffset="0.00,0.00" convBoundary="-11.11,-221.30,1597.48,278.70" origBoundary="-0.010000,-0.010000,0.010000,0.010000" projParameter="+proj=utm +zone=33 +ellps=WGS84 +datum=WGS84 +units=m +no_defs"/>

    <edge id="E0" from="J0" to="J1" priority="-1">
        <lane id="E0_0" index="0" speed="40.00" length="356.06" shape="1597.46,40.43 1248.62,39.91"/>
        <lane id="E0_1" index="1" speed="40.00" length="356.06" shape="1597.47,37.23 1248.63,36.71"/>
        <lane id="E0_2" index="2" speed="40.00" length="356.06" shape="1597.47,34.03 1248.63,33.51"/>
        <lane id="E0_3" index="3" speed="40.00" length="356.06" shape="1597.48,30.83 1248.64,30.31"/>
    </edge>
    <edge id="E1" from="J1" to="J2" priority="-1" length="250.00">
        <lane id="E1_0" index="0" speed="40.00" length="250.00" shape="1239.82,24.70 1239.82,-221.30"/>
    </edge>
    <edge id="E2" from="J1" to="J3" priority="-1" length="250.00">
        <lane id="E2_0" index="0" speed="40.00" length="250.00" shape="1243.02,45.50 1243.02,278.70"/>
    </edge>
    <edge id="E5" from="J1" to="J6" priority="-1" length="250.00">
        <lane id="E5_0" index="0" speed="13.89" length="250.00" shape="1234.22,39.90 998.62,39.90"/>
        <lane id="E5_1" index="1" speed="13.89" length="250.00" shape="1234.22,36.70 998.62,36.70"/>
        <lane id="E5_2" index="2" speed="13.89" length="250.00" shape="1234.22,33.50 998.62,33.50"/>
        <lane id="E5_3" index="3" speed="13.89" length="250.00" shape="1234.22,30.30 998.62,30.30"/>
    </edge>
    <edge id="E6" from="J6" to="J7" priority="-1" length="250.00">
        <lane id="E6_0" index="0" speed="40.00" length="250.00" shape="993.02,45.50 993.02,278.70"/>
    </edge>
    <edge id="E7" from="J6" to="J8" priority="-1" length="250.00">
        <lane id="E7_0" index="0" speed="40.00" length="250.00" shape="989.82,24.70 989.82,-221.30"/>
    </edge>
    <edge id="E8" from="J6" to="J9" priority="-1">
        <lane id="E8_0" index="0" speed="40.00" length="1002.53" shape="984.22,39.90 -11.11,40.32"/>
        <lane id="E8_1" index="1" speed="40.00" length="1002.53" shape="984.22,36.70 -11.11,37.12"/>
        <lane id="E8_2" index="2" speed="40.00" length="1002.53" shape="984.22,33.50 -11.11,33.92"/>
        <lane id="E8_3" index="3" speed="40.00" length="1002.53" shape="984.22,30.30 -11.11,30.72"/>
    </edge>

    <junction id="J0" type="dead_end" x="1597.48" y="29.23" incLanes="" intLanes="" shape="1597.48,29.23 1597.46,42.03"/>
    <junction id="J1" type="priority" x="1241.42" y="28.70" incLanes="E0_0 E0_1 E0_2 E0_3" intLanes="" shape="1241.42,45.50 1244.62,45.50 1245.06,43.28 1245.62,42.51 1246.40,41.95 1247.40,41.62 1248.62,41.51 1248.64,28.71 1246.43,28.60 1244.63,28.26 1243.22,27.70 1242.22,26.92 1241.62,25.92 1241.42,24.70 1238.22,24.70 1237.78,26.92 1237.22,27.70 1236.44,28.26 1235.44,28.59 1234.22,28.70 1234.22,41.50 1236.42,41.61 1238.22,41.94 1239.62,42.50 1240.62,43.28 1241.22,44.28">
        <request index="0" response="000000" foes="000000"/>
        <request index="1" response="000000" foes="000000"/>
        <request index="2" response="000000" foes="000000"/>
        <request index="3" response="000000" foes="000000"/>
        <request index="4" response="000000" foes="000000"/>
        <request index="5" response="000000" foes="000000"/>
    </junction>
    <junction id="J2" type="dead_end" x="1241.42" y="-221.30" incLanes="E1_0" intLanes="" shape="1238.22,-221.30 1241.42,-221.30"/>
    <junction id="J3" type="dead_end" x="1241.42" y="278.70" incLanes="E2_0" intLanes="" shape="1244.62,278.70 1241.42,278.70"/>
    <junction id="J6" type="priority" x="991.42" y="28.70" incLanes="E5_0 E5_1 E5_2 E5_3" intLanes="" shape="991.42,45.50 994.62,45.50 995.06,43.28 995.62,42.50 996.40,41.94 997.40,41.61 998.62,41.50 998.62,28.70 996.42,28.59 994.62,28.26 993.22,27.70 992.22,26.92 991.62,25.92 991.42,24.70 988.22,24.70 987.78,26.92 987.22,27.70 986.44,28.26 985.44,28.59 984.22,28.70 984.23,41.50 986.42,41.61 988.22,41.95 989.62,42.50 990.62,43.28 991.22,44.28">
        <request index="0" response="000000" foes="000000"/>
        <request index="1" response="000000" foes="000000"/>
        <request index="2" response="000000" foes="000000"/>
        <request index="3" response="000000" foes="000000"/>
        <request index="4" response="000000" foes="000000"/>
        <request index="5" response="000000" foes="000000"/>
    </junction>
    <junction id="J7" type="dead_end" x="991.42" y="278.70" incLanes="E6_0" intLanes="" shape="994.62,278.70 991.42,278.70"/>
    <junction id="J8" type="dead_end" x="991.42" y="-221.30" incLanes="E7_0" intLanes="" shape="988.22,-221.30 991.42,-221.30"/>
    <junction id="J9" type="dead_end" x="-11.11" y="29.12" incLanes="E8_0 E8_1 E8_2 E8_3" intLanes="" shape="-11.10,41.92 -11.11,29.12"/>

    <connection from="E0" to="E2" fromLane="0" toLane="0" dir="r" state="M"/>
    <connection from="E0" to="E5" fromLane="0" toLane="0" dir="s" state="M"/>
    <connection from="E0" to="E5" fromLane="1" toLane="1" dir="s" state="M"/>
    <connection from="E0" to="E5" fromLane="2" toLane="2" dir="s" state="M"/>
    <connection from="E0" to="E5" fromLane="3" toLane="3" dir="s" state="M"/>
    <connection from="E0" to="E1" fromLane="3" toLane="0" dir="l" state="M"/>
    <connection from="E5" to="E6" fromLane="0" toLane="0" dir="r" state="M"/>
    <connection from="E5" to="E8" fromLane="0" toLane="0" dir="s" state="M"/>
    <connection from="E5" to="E8" fromLane="1" toLane="1" dir="s" state="M"/>
    <connection from="E5" to="E8" fromLane="2" toLane="2" dir="s" state="M"/>
    <connection from="E5" to="E8" fromLane="3" toLane="3" dir="s" state="M"/>
    <connection from="E5" to="E7" fromLane="3" toLane="0" dir="l" state="M"/>

</net>
