<?xml version="1.0" encoding="UTF-8"?>

<!-- generated on 2026-01-29 16:26:52 by Eclipse SUMO netedit Version 1.24.0
<neteditConfiguration xmlns:xsi="http://www.w3.org/2001/XMLSchema-instance" xsi:noNamespaceSchemaLocation="http://sumo.dlr.de/xsd/neteditConfiguration.xsd">

    <input>
        <sumo-net-file value="map.net.xml"/>
    </input>

    <output>
        <output-file value="map.net.xml"/>
    </output>

    <processing>
        <geometry.min-radius.fix.railways value="false"/>
        <geometry.avoid-overlap value="false"/>
        <geometry.max-grade.fix value="false"/>
        <offset.disable-normalization value="true"/>
        <lefthand value="0"/>
    </processing>

    <junctions>
        <no-internal-links value="true"/>
        <no-turnarounds value="true"/>
        <junctions.corner-detail value="5"/>
        <junctions.limit-turn-speed value="5.50"/>
        <rectangular-lane-cut value="0"/>
    </junctions>

    <pedestrian>
        <walkingareas value="0"/>
    </pedestrian>

</neteditConfiguration>
-->

<net version="1.20" junctionCornerDetail="5" limitTurnSpeed="5.50" avoidOverlap="0" xmlns:xsi="http://www.w3.org/2001/XMLSchema-instance" xsi:noNamespaceSchemaLocation="http://sumo.dlr.de/xsd/net_file.xsd">

    <location netOffset="0.00,0.00" convBoundary="-11.11,5.37,1491.42,61.70" origBoundary="-0.010000,-0.010000,0.010000,0.010000" projParameter="+proj=utm +zone=33 +ellps=WGS84 +datum=WGS84 +units=m +no_defs"/>

    <edge id="E0" from="J0" to="J1" priority="-1">
        <lane id="E0_0" index="0" speed="200.00" length="250.00" shape="1491.40,40.43 1244.06,39.91"/>
        <lane id="E0_1" index="1" speed="200.00" length="250.00" shape="1491.40,37.23 1244.06,36.71"/>
        <lane id="E0_2" index="2" speed="200.00" length="250.00" shape="1491.41,34.03 1244.07,33.51"/>
        <lane id="E0_3" index="3" speed="200.00" length="250.00" shape="1491.42,30.83 1244.08,30.31"/>
    </edge>
    <edge id="E1" from="J1" to="J2" priority="-1" shape="1241.42,28.70 1227.63,5.37">
        <lane id="E1_0" index="0" speed="200.00" length="27.06" shape="1237.73,25.60 1227.18,7.76"/>
    </edge>
    <edge id="E2" from="J1" to="J3" priority="-1">
        <lane id="E2_0" index="0" speed="200.00" length="35.82" shape="1236.46,44.57 1228.97,62.32"/>
    </edge>
    <edge id="E4" from="J3" to="J15" priority="-1" shape="1227.50,61.70 991.42,61.70,0.20">
        <lane id="E4_0" index="0" speed="200.00" length="236.28" shape="1227.50,63.30 991.42,63.30,0.20"/>
    </edge>
    <edge id="E5" from="J1" to="J6" priority="-1" length="250.00">
        <lane id="E5_0" index="0" speed="200.00" length="250.00" shape="1233.36,39.90 991.42,39.90"/>
        <lane id="E5_1" index="1" speed="200.00" length="250.00" shape="1233.36,36.70 991.42,36.70"/>
        <lane id="E5_2" index="2" speed="200.00" length="250.00" shape="1233.36,33.50 991.42,33.50"/>
        <lane id="E5_3" index="3" speed="200.00" length="250.00" shape="1233.36,30.30 991.42,30.30"/>
    </edge>
    <edge id="E6" from="J2" to="J16" priority="-1" length="236.28" shape="1227.63,5.37 991.42,5.75">
        <lane id="E6_0" index="0" speed="200.00" length="236.28" shape="1225.80,6.97 991.42,7.35"/>
    </edge>

    <junction id="J0" type="dead_end" x="1491.42" y="29.23" incLanes="" intLanes="" shape="1491.42,29.23 1491.39,42.03"/>
    <junction id="J1" type="priority" x="1241.42" y="28.70" incLanes="E0_0 E0_1 E0_2 E0_3" intLanes="" shape="1244.05,41.51 1244.08,28.71 1242.34,28.27 1241.51,27.72 1240.69,26.96 1239.89,25.98 1239.10,24.78 1236.35,26.41 1236.62,27.68 1236.28,28.13 1235.62,28.45 1234.65,28.64 1233.36,28.70 1233.36,41.50 1234.72,41.77 1235.10,42.11 1235.27,42.59 1235.23,43.20 1234.99,43.95 1237.94,45.19 1239.31,43.14 1240.24,42.42 1241.35,41.91 1242.62,41.61">
        <request index="0" response="000000" foes="000000"/>
        <request index="1" response="000000" foes="000000"/>
        <request index="2" response="000000" foes="000000"/>
        <request index="3" response="000000" foes="000000"/>
        <request index="4" response="000000" foes="000000"/>
        <request index="5" response="000000" foes="000000"/>
    </junction>
    <junction id="J15" type="dead_end" x="991.42" y="61.70" incLanes="E4_0" intLanes="" shape="991.42,64.90 991.42,61.70"/>
    <junction id="J16" type="dead_end" x="991.42" y="5.50" incLanes="E6_0" intLanes="" shape="991.43,8.95 991.42,5.75"/>
    <junction id="J2" type="priority" x="1227.50" y="5.50" incLanes="E1_0" intLanes="" shape="1225.81,8.57 1228.56,6.94 1227.84,6.07 1227.41,5.76 1226.92,5.55 1226.39,5.42 1225.80,5.37">
        <request index="0" response="0" foes="0"/>
    </junction>
    <junction id="J3" type="priority" x="1227.50" y="61.70" incLanes="E2_0" intLanes="" shape="1230.45,62.94 1227.50,61.70 1227.50,64.90 1228.77,64.68 1229.30,64.41 1229.75,64.03 1230.14,63.54">
        <request index="0" response="0" foes="0"/>
    </junction>
    <junction id="J6" type="dead_end" x="991.42" y="28.70" incLanes="E5_0 E5_1 E5_2 E5_3" intLanes="" shape="991.42,41.70 991.42,28.70" customShape="1"/>
    <junction id="J9" type="dead_end" x="-11.11" y="29.12" incLanes="" intLanes="" shape="-11.11,29.12"/>

    <connection from="E0" to="E2" fromLane="0" toLane="0" dir="r" state="M"/>
    <connection from="E0" to="E5" fromLane="0" toLane="0" dir="s" state="M"/>
    <connection from="E0" to="E5" fromLane="1" toLane="1" dir="s" state="M"/>
    <connection from="E0" to="E5" fromLane="2" toLane="2" dir="s" state="M"/>
    <connection from="E0" to="E5" fromLane="3" toLane="3" dir="s" state="M"/>
    <connection from="E0" to="E1" fromLane="3" toLane="0" dir="l" state="M"/>
    <connection from="E1" to="E6" fromLane="0" toLane="0" dir="r" state="M"/>
    <connection from="E2" to="E4" fromLane="0" toLane="0" dir="l" state="M"/>

</net>
