<?xml version="1.0" encoding="UTF-8"?>

<!-- generated on 2026-01-19 21:57:54 by Eclipse SUMO netedit Version 1.24.0
<neteditConfiguration xmlns:xsi="http://www.w3.org/2001/XMLSchema-instance" xsi:noNamespaceSchemaLocation="http://sumo.dlr.de/xsd/neteditConfiguration.xsd">

    <input>
        <sumo-net-file value="map.net.xml"/>
    </input>

    <output>
        <output-file value="map.net.xml"/>
    </output>

    <processing>
        <geometry.min-radius.fix.railways value="false"/>
        <geometry.avoid-overlap value="false"/>
        <geometry.max-grade.fix value="false"/>
        <offset.disable-normalization value="true"/>
        <lefthand value="0"/>
    </processing>

    <junctions>
        <no-internal-links value="true"/>
        <no-turnarounds value="true"/>
        <junctions.corner-detail value="5"/>
        <junctions.limit-turn-speed value="5.50"/>
        <rectangular-lane-cut value="0"/>
    </junctions>

    <pedestrian>
        <walkingareas value="0"/>
    </pedestrian>

</neteditConfiguration>
-->

<net version="1.20" junctionCornerDetail="5" limitTurnSpeed="5.50" avoidOverlap="0" xmlns:xsi="http://www.w3.org/2001/XMLSchema-instance" xsi:noNamespaceSchemaLocation="http://sumo.dlr.de/xsd/net_file.xsd">

    <location netOffset="0.00,0.00" convBoundary="-11.11,-168.17,1597.48,213.67" origBoundary="-0.010000,-0.010000,0.010000,0.010000" projParameter="+proj=utm +zone=33 +ellps=WGS84 +datum=WGS84 +units=m +no_defs"/>

    <edge id="E0" from="J0" to="J1" priority="-1">
        <lane id="E0_0" index="0" speed="40.00" length="356.06" shape="1597.46,40.43 1243.23,39.90"/>
        <lane id="E0_1" index="1" speed="40.00" length="356.06" shape="1597.47,37.23 1243.23,36.70"/>
        <lane id="E0_2" index="2" speed="40.00" length="356.06" shape="1597.47,34.03 1243.24,33.50"/>
        <lane id="E0_3" index="3" speed="40.00" length="356.06" shape="1597.48,30.83 1243.24,30.30"/>
    </edge>
    <edge id="E1" from="J1" to="J2" priority="-1">
        <lane id="E1_0" index="0" speed="40.00" length="261.37" shape="1237.17,26.27 1068.29,-167.12"/>
    </edge>
    <edge id="E2" from="J1" to="J3" priority="-1">
        <lane id="E2_0" index="0" speed="40.00" length="244.96" shape="1230.32,43.93 1082.03,214.72"/>
    </edge>
    <edge id="E5" from="J1" to="J6" priority="-1">
        <lane id="E5_0" index="0" speed="13.89" length="549.17" shape="1228.48,39.90 694.52,39.71"/>
        <lane id="E5_1" index="1" speed="13.89" length="549.17" shape="1228.48,36.70 694.52,36.51"/>
        <lane id="E5_2" index="2" speed="13.89" length="549.17" shape="1228.48,33.50 694.52,33.31"/>
        <lane id="E5_3" index="3" speed="13.89" length="549.17" shape="1228.48,30.30 694.52,30.11"/>
    </edge>
    <edge id="E6" from="J6" to="J7" priority="-1">
        <lane id="E6_0" index="0" speed="40.00" length="209.96" shape="684.85,44.09 586.31,209.79"/>
    </edge>
    <edge id="E7" from="J6" to="J8" priority="-1">
        <lane id="E7_0" index="0" speed="40.00" length="231.94" shape="688.25,25.73 554.45,-158.07"/>
    </edge>
    <edge id="E8" from="J6" to="J9" priority="-1">
        <lane id="E8_0" index="0" speed="40.00" length="703.36" shape="682.36,39.71 -11.10,40.32"/>
        <lane id="E8_1" index="1" speed="40.00" length="703.36" shape="682.35,36.51 -11.10,37.12"/>
        <lane id="E8_2" index="2" speed="40.00" length="703.36" shape="682.35,33.31 -11.11,33.92"/>
        <lane id="E8_3" index="3" speed="40.00" length="703.36" shape="682.35,30.11 -11.11,30.72"/>
    </edge>

    <junction id="J0" type="dead_end" x="1597.48" y="29.23" incLanes="" intLanes="" shape="1597.48,29.23 1597.46,42.03"/>
    <junction id="J1" type="priority" x="1241.42" y="28.70" incLanes="E0_0 E0_1 E0_2 E0_3" intLanes="" shape="1243.23,41.50 1243.24,28.70 1241.89,28.32 1241.11,27.83 1240.27,27.15 1239.35,26.28 1238.37,25.22 1235.96,27.32 1235.67,28.09 1234.69,28.36 1233.17,28.55 1231.10,28.66 1228.48,28.70 1228.48,41.50 1229.36,41.65 1229.55,41.84 1229.57,42.11 1229.42,42.46 1229.11,42.88 1231.52,44.98 1234.17,43.04 1235.96,42.37 1238.07,41.88 1240.49,41.60">
        <request index="0" response="000000" foes="000000"/>
        <request index="1" response="000000" foes="000000"/>
        <request index="2" response="000000" foes="000000"/>
        <request index="3" response="000000" foes="000000"/>
        <request index="4" response="000000" foes="000000"/>
        <request index="5" response="000000" foes="000000"/>
    </junction>
    <junction id="J2" type="dead_end" x="1069.50" y="-168.17" incLanes="E1_0" intLanes="" shape="1067.09,-166.07 1069.50,-168.17"/>
    <junction id="J3" type="dead_end" x="1080.82" y="213.67" incLanes="E2_0" intLanes="" shape="1083.24,215.77 1080.82,213.67"/>
    <junction id="J6" type="priority" x="692.25" y="28.50" incLanes="E5_0 E5_1 E5_2 E5_3" intLanes="" shape="694.52,41.31 694.53,28.51 692.96,28.09 692.14,27.58 691.30,26.85 690.43,25.92 689.54,24.78 686.95,26.67 687.04,27.69 686.47,28.05 685.50,28.31 684.13,28.46 682.35,28.51 682.36,41.31 683.49,41.53 683.77,41.80 683.86,42.18 683.76,42.67 683.47,43.27 686.22,44.90 688.09,42.90 689.37,42.20 690.86,41.70 692.58,41.41">
        <request index="0" response="000000" foes="000000"/>
        <request index="1" response="000000" foes="000000"/>
        <request index="2" response="000000" foes="000000"/>
        <request index="3" response="000000" foes="000000"/>
        <request index="4" response="000000" foes="000000"/>
        <request index="5" response="000000" foes="000000"/>
    </junction>
    <junction id="J7" type="dead_end" x="584.93" y="208.97" incLanes="E6_0" intLanes="" shape="587.68,210.61 584.93,208.97"/>
    <junction id="J8" type="dead_end" x="555.74" y="-159.01" incLanes="E7_0" intLanes="" shape="553.15,-157.13 555.74,-159.01"/>
    <junction id="J9" type="dead_end" x="-11.11" y="29.12" incLanes="E8_0 E8_1 E8_2 E8_3" intLanes="" shape="-11.10,41.92 -11.11,29.12"/>

    <connection from="E0" to="E2" fromLane="0" toLane="0" dir="r" state="M"/>
    <connection from="E0" to="E5" fromLane="0" toLane="0" dir="s" state="M"/>
    <connection from="E0" to="E5" fromLane="1" toLane="1" dir="s" state="M"/>
    <connection from="E0" to="E5" fromLane="2" toLane="2" dir="s" state="M"/>
    <connection from="E0" to="E5" fromLane="3" toLane="3" dir="s" state="M"/>
    <connection from="E0" to="E1" fromLane="3" toLane="0" dir="l" state="M"/>
    <connection from="E5" to="E6" fromLane="0" toLane="0" dir="r" state="M"/>
    <connection from="E5" to="E8" fromLane="0" toLane="0" dir="s" state="M"/>
    <connection from="E5" to="E8" fromLane="1" toLane="1" dir="s" state="M"/>
    <connection from="E5" to="E8" fromLane="2" toLane="2" dir="s" state="M"/>
    <connection from="E5" to="E8" fromLane="3" toLane="3" dir="s" state="M"/>
    <connection from="E5" to="E7" fromLane="3" toLane="0" dir="l" state="M"/>

</net>
